 CRYSTAL
 PRIMVEC
    12.804619     7.392750     0.000000
     0.000000    14.785500     0.000000
     0.000000     0.000000    10.000000
 CONVVEC
    12.804619     7.392750     0.000000
     0.000000    14.785500     0.000000
     0.000000     0.000000    10.000000
 PRIMCOORD
 72     1
  5    11.345421    12.285420     0.000000
  5    12.056757    11.053241     0.000000
  5     3.520345     3.660491     0.000000
  5     2.809009     4.892670     0.000000
  5     3.520345     6.124741     0.000000
  5     4.943112     6.124795     0.000000
  5     5.654448     7.356866     0.000000
  5     7.077215     7.356920     0.000000
  5     7.788551     8.588991     0.000000
  5     2.809009     7.356920     0.000000
  5     4.943112     8.589045     0.000000
  5     7.077215     9.821170     0.000000
  5     7.788551    11.053241     0.000000
  5     9.922654    12.285366     0.000000
  5     7.077215    12.285420     0.000000
  5     9.211318    13.517545     0.000000
  6     0.674905     1.196295     0.000000
  6     1.386242     2.428366     0.000000
  6     9.211318    18.446045     0.000000
  6     9.922654    19.678116     0.000000
  6    11.345421    17.213920     0.000000
  6    12.056757    18.445991     0.000000
  6    11.345421    14.749670     0.000000
  6    12.056757    15.981741     0.000000
  6    12.056757    13.517491     0.000000
  6    11.345421     9.821170     0.000000
  6     7.077215    17.213920     0.000000
  6     7.788551    18.445991     0.000000
  6     2.809009     2.428420     0.000000
  6     4.943112     3.660545     0.000000
  6     5.654448     4.892616     0.000000
  6     7.077215     4.892670     0.000000
  6     7.788551     6.124741     0.000000
  6     9.211318     6.124795     0.000000
  6     9.922654     7.356866     0.000000
  6    11.345421     7.356920     0.000000
  6    12.056757     8.588991     0.000000
  6     0.674905     3.660545     0.000000
  6     1.386242     4.892616     0.000000
  6     9.211318     8.589045     0.000000
  6     9.922654     9.821116     0.000000
  6     0.674905     6.124795     0.000000
  6     1.386242     7.356866     0.000000
  6     3.520345     8.588991     0.000000
  6     5.654448     9.821116     0.000000
  6     0.674905     8.589045     0.000000
  6     1.386242     9.821116     0.000000
  6     2.809009     9.821170     0.000000
  6     3.520345    11.053241     0.000000
  6     4.943112    11.053295     0.000000
  6     5.654448    12.285366     0.000000
  6     0.674905    11.053295     0.000000
  6     1.386242    12.285366     0.000000
  6     2.809009    12.285420     0.000000
  6     3.520345    13.517491     0.000000
  6     0.674905    13.517545     0.000000
  6     1.386242    14.749616     0.000000
  6     2.809009    14.749670     0.000000
  6     3.520345    15.981741     0.000000
  6     9.211318    11.053295     0.000000
  6     7.788551    13.517491     0.000000
  6     4.943112    13.517545     0.000000
  6     5.654448    14.749616     0.000000
  6     9.922654    14.749616     0.000000
  6     7.077215    14.749670     0.000000
  6     7.788551    15.981741     0.000000
  6     4.943112    15.981795     0.000000
  6     5.654448    17.213866     0.000000
  6     9.211318    15.981795     0.000000
  6     9.922654    17.213866     0.000000
  6    11.345421    19.678170     0.000000
  6    12.056757    20.910241     0.000000
