 CRYSTAL
 PRIMVEC
    14.785000     0.000000     0.000000
     7.392500    12.804185     0.000000
     0.000000     0.000000    10.000000
 CONVVEC
    14.785000     0.000000     0.000000
     7.392500    12.804185     0.000000
     0.000000     0.000000    10.000000
 PRIMCOORD
 72     1
  5     1.182968     0.698978     0.000000
  5     2.414935     1.409955     0.000000
  6    17.199546    11.368642     0.000000
  6    18.431511    12.079619     0.000000
  6    18.431490     9.234708     0.000000
  6    19.663457     9.945687     0.000000
  6    17.199515     7.100776     0.000000
  6    18.431480     7.811754     0.000000
  6    15.967537     4.966843     0.000000
  6    17.199504     5.677821     0.000000
  6    14.735559     2.832911     0.000000
  6    15.967527     3.543888     0.000000
  6    14.735623    11.368642     0.000000
  6    15.967589    12.079619     0.000000
  6     3.646891     0.698978     0.000000
  6     4.878858     1.409955     0.000000
  6     6.110814     0.698978     0.000000
  6     7.342780     1.409955     0.000000
  6     8.574736     0.698978     0.000000
  6     9.806704     1.409955     0.000000
  6    11.039659     0.698978     0.000000
  6    12.271627     1.409955     0.000000
  6    13.503582     0.698978     0.000000
  6    14.735549     1.409955     0.000000
  6     2.414945     2.832911     0.000000
  6     3.646912     3.543888     0.000000
  6     4.878868     2.832911     0.000000
  6     6.110835     3.543888     0.000000
  6     7.342791     2.832911     0.000000
  6     8.574757     3.543888     0.000000
  6     9.807713     2.832911     0.000000
  6    11.039680     3.543888     0.000000
  6    12.271637     2.832911     0.000000
  6    13.503603     3.543888     0.000000
  6     3.646923     4.966843     0.000000
  6     4.878889     5.677821     0.000000
  6     6.110845     4.966843     0.000000
  6     7.342812     5.677821     0.000000
  6     8.574768     4.966843     0.000000
  6     9.806735     5.677821     0.000000
  6    11.039691     4.966843     0.000000
  6    12.271658     5.677821     0.000000
  6     4.878900     7.100776     0.000000
  6     6.110867     7.811754     0.000000
  6     7.342822     7.100776     0.000000
  6     8.574789     7.811754     0.000000
  6     9.807745     7.100776     0.000000
  6    11.039712     7.811754     0.000000
  6     6.110877     9.234708     0.000000
  6     7.342843     9.945687     0.000000
  6     8.574799     9.234708     0.000000
  6     9.806767     9.945687     0.000000
  6     7.342854    11.368642     0.000000
  6     8.574821    12.079619     0.000000
  6     9.807777    11.368642     0.000000
  6    11.039744    12.079619     0.000000
  6    13.503614     4.966843     0.000000
  6    14.735580     5.677821     0.000000
  6    12.271668     7.100776     0.000000
  6    13.503635     7.811754     0.000000
  6    11.039722     9.234708     0.000000
  6    12.271689     9.945687     0.000000
  6    14.735591     7.100776     0.000000
  6    15.967559     7.811754     0.000000
  6    13.503645     9.234708     0.000000
  6    14.735612     9.945687     0.000000
  6    12.271700    11.368642     0.000000
  6    13.503666    12.079619     0.000000
  6    15.967569     9.234708     0.000000
  6    17.199536     9.945687     0.000000
  6    19.664469    11.368642     0.000000
  6    20.896434    12.079619     0.000000
