 CRYSTAL
 PRIMVEC
    12.804619     7.392750     0.000000
     0.000000    14.785500     0.000000
     0.000000     0.000000    10.000000
 CONVVEC
    12.804619     7.392750     0.000000
     0.000000    14.785500     0.000000
     0.000000     0.000000    10.000000
 PRIMCOORD
 72     1
  7     4.914838    15.600766     0.000000
  7     4.914838     9.909887     0.000000
  7     2.450588    11.332560     0.000000
  7     3.682713    12.043990     0.000000
  7     3.682713    13.466663     0.000000
  7    -0.013662    11.332560     0.000000
  7     1.218463    12.043990     0.000000
  7     1.218463    13.466663     0.000000
  7    -2.477912    11.332560     0.000000
  7    -1.245787    12.043990     0.000000
  7    -1.245787    13.466663     0.000000
  7    -4.942162    11.332560     0.000000
  7    -3.710037    12.043990     0.000000
  7    -3.710037    13.466663     0.000000
  7    -6.174287    12.043990     0.000000
  7    -6.174287    13.466663     0.000000
  7    -4.942162    14.178093     0.000000
  7     2.450588    14.178093     0.000000
  7    -0.013662    14.178093     0.000000
  7    -2.477912    14.178093     0.000000
  6    -0.013662     1.373474     0.000000
  6    -0.013662     2.796147     0.000000
  6    -1.245787    20.580402     0.000000
  6    -1.245787    22.003075     0.000000
  6     1.218463    20.580402     0.000000
  6     1.218463    22.003075     0.000000
  6     2.450588    18.446299     0.000000
  6     2.450588    19.868972     0.000000
  6     3.682713    16.312196     0.000000
  6     3.682713    17.734869     0.000000
  6     4.914838    14.178093     0.000000
  6    -2.477912    18.446299     0.000000
  6    -2.477912    19.868972     0.000000
  6     1.218463     3.507578     0.000000
  6     1.218463     4.930250     0.000000
  6     2.450588     5.641681     0.000000
  6     2.450588     7.064354     0.000000
  6     3.682713     7.775784     0.000000
  6     3.682713     9.198457     0.000000
  6     4.914838    11.332560     0.000000
  6     6.146963    12.043990     0.000000
  6     6.146963    13.466663     0.000000
  6    -1.245787     3.507578     0.000000
  6    -1.245787     4.930250     0.000000
  6    -0.013662     5.641681     0.000000
  6    -0.013662     7.064354     0.000000
  6     1.218463     7.775784     0.000000
  6     1.218463     9.198457     0.000000
  6     2.450588     9.909887     0.000000
  6    -2.477912     5.641681     0.000000
  6    -2.477912     7.064354     0.000000
  6    -1.245787     7.775784     0.000000
  6    -1.245787     9.198457     0.000000
  6    -0.013662     9.909887     0.000000
  6    -3.710037     7.775784     0.000000
  6    -3.710037     9.198457     0.000000
  6    -2.477912     9.909887     0.000000
  6    -4.942162     9.909887     0.000000
  6    -4.942162    15.600766     0.000000
  6     2.450588    15.600766     0.000000
  6    -0.013662    15.600766     0.000000
  6    -2.477912    15.600766     0.000000
  6     1.218463    16.312196     0.000000
  6     1.218463    17.734869     0.000000
  6    -1.245787    16.312196     0.000000
  6    -1.245787    17.734869     0.000000
  6    -3.710037    16.312196     0.000000
  6    -3.710037    17.734869     0.000000
  6    -0.013662    18.446299     0.000000
  6    -0.013662    19.868972     0.000000
  6    -0.013662    22.714505     0.000000
  6    -0.013662    24.137178     0.000000
