 CRYSTAL
 PRIMVEC
    14.785000     0.000000     0.000000
     7.393000    12.805052     0.000000
     0.000000     0.000000    10.000000
 CONVVEC
    14.785000     0.000000     0.000000
     7.393000    12.805052     0.000000
     0.000000     0.000000    10.000000
 PRIMCOORD
 72     1
  6     1.182995     0.699025     0.000000
  6     2.414990     1.410051     0.000000
  6    17.199990    11.369412     0.000000
  6    18.431983    12.080437     0.000000
  6    18.431851     9.235333     0.000000
  6    19.663845     9.946359     0.000000
  6    17.199792     7.101257     0.000000
  6    18.431785     7.812282     0.000000
  6    15.967731     4.967180     0.000000
  6    17.199726     5.678205     0.000000
  6    14.735670     2.833102     0.000000
  6    15.967665     3.544128     0.000000
  6    14.736067    11.369412     0.000000
  6    15.968061    12.080437     0.000000
  6     3.646918     0.699025     0.000000
  6     4.878913     1.410051     0.000000
  6     6.110841     0.699025     0.000000
  6     7.342835     1.410051     0.000000
  6     8.574763     0.699025     0.000000
  6     9.806759     1.410051     0.000000
  6    11.039686     0.699025     0.000000
  6    12.271682     1.410051     0.000000
  6    13.503609     0.699025     0.000000
  6    14.735604     1.410051     0.000000
  6     2.415056     2.833102     0.000000
  6     3.647050     3.544128     0.000000
  6     4.878979     2.833102     0.000000
  6     6.110973     3.544128     0.000000
  6     7.342902     2.833102     0.000000
  6     3.647117     4.967180     0.000000
  6     4.879111     5.678205     0.000000
  6     6.111039     4.967180     0.000000
  6     9.806957     5.678205     0.000000
  6    11.039885     4.967180     0.000000
  6    12.271879     5.678205     0.000000
  6     4.879177     7.101257     0.000000
  6     6.111172     7.812282     0.000000
  6     9.808022     7.101257     0.000000
  6    11.040017     7.812282     0.000000
  6     6.111237     9.235333     0.000000
  6     7.343232     9.946359     0.000000
  6     7.343298    11.369412     0.000000
  6     8.575292    12.080437     0.000000
  6     9.808221    11.369412     0.000000
  6    11.040216    12.080437     0.000000
  6    12.271946     7.101257     0.000000
  6    15.967864     7.812282     0.000000
  6    14.736001     9.946359     0.000000
  6    12.272144    11.369412     0.000000
  6    13.504138    12.080437     0.000000
  6    15.967929     9.235333     0.000000
  6    17.199924     9.946359     0.000000
  6    19.664913    11.369412     0.000000
  6    20.896906    12.080437     0.000000
  7     8.574896     3.544128     0.000000
  7     9.807824     2.833102     0.000000
  7    11.039819     3.544128     0.000000
  7    12.271748     2.833102     0.000000
  7    13.503741     3.544128     0.000000
  7     7.343034     5.678205     0.000000
  7     8.574962     4.967180     0.000000
  7     7.343100     7.101257     0.000000
  7     8.575094     7.812282     0.000000
  7     8.575160     9.235333     0.000000
  7     9.807155     9.946359     0.000000
  7    13.503808     4.967180     0.000000
  7    14.735802     5.678205     0.000000
  7    13.503940     7.812282     0.000000
  7    11.040083     9.235333     0.000000
  7    12.272078     9.946359     0.000000
  7    14.735868     7.101257     0.000000
  7    13.504006     9.235333     0.000000
